
  EPA STORM WATER MANAGEMENT MODEL - VERSION 5.2 (Build 5.2.4)
  PYSWMM TOOLKIT API - VERSION v1.0 (2023-09-27)
  ------------------------------------------------------------

  WARNING 04: minimum elevation drop used for Conduit T30-1
  
  ****************
  Analysis Options
  ****************
  Flow Units ............... LPS
  Process Models:
    Rainfall/Runoff ........ YES
    RDII ................... NO
    Snowmelt ............... NO
    Groundwater ............ NO
    Flow Routing ........... YES
    Ponding Allowed ........ NO
    Water Quality .......... NO
  Infiltration Method ...... CURVE_NUMBER
  Flow Routing Method ...... DYNWAVE
  Surcharge Method ......... EXTRAN
  Starting Date ............ 10/28/2011 00:00:00
  Ending Date .............. 10/28/2011 06:00:00
  Antecedent Dry Days ...... 0.0
  Report Time Step ......... 00:01:00
  Wet Time Step ............ 00:01:00
  Dry Time Step ............ 00:01:00
  Routing Time Step ........ 1.00 sec
  Variable Time Step ....... YES
  Maximum Trials ........... 8
  Number of Threads ........ 1
  Head Tolerance ........... 0.001524 m
  
  
  **************************        Volume         Depth
  Runoff Quantity Continuity     hectare-m            mm
  **************************     ---------       -------
  Total Precipitation ......        51.632        48.180
  Evaporation Loss .........         0.000         0.000
  Infiltration Loss ........        13.155        12.276
  Surface Runoff ...........        37.574        35.062
  Final Storage ............         0.911         0.850
  Continuity Error (%) .....        -0.016
  
  
  **************************        Volume        Volume
  Flow Routing Continuity        hectare-m      10^6 ltr
  **************************     ---------     ---------
  Dry Weather Inflow .......         0.000         0.000
  Wet Weather Inflow .......        37.573       375.731
  Groundwater Inflow .......         0.000         0.000
  RDII Inflow ..............         0.000         0.000
  External Inflow ..........         0.000         0.000
  External Outflow .........        24.108       241.082
  Flooding Loss ............        13.270       132.697
  Evaporation Loss .........         0.000         0.000
  Exfiltration Loss ........         0.000         0.000
  Initial Stored Volume ....         0.000         0.001
  Final Stored Volume ......         0.206         2.065
  Continuity Error (%) .....        -0.030
  
  
  *************************
  Highest Continuity Errors
  *************************
  Node J41 (2.44%)
  
  
  ***************************
  Time-Step Critical Elements
  ***************************
  None
  
  
  ********************************
  Highest Flow Instability Indexes
  ********************************
  Link T33 (1)
  
  
  *********************************
  Most Frequent Nonconverging Nodes
  *********************************
  Node Out2 (1.52%)
  Node J5 (0.38%)
  Node J6 (0.35%)
  Node J21 (0.26%)
  Node J19 (0.26%)
  
  
  *************************
  Routing Time Step Summary
  *************************
  Minimum Time Step           :     0.50 sec
  Average Time Step           :     1.00 sec
  Maximum Time Step           :     1.00 sec
  % of Time in Steady State   :     0.00
  Average Iterations per Step :     2.31
  % of Steps Not Converging   :     1.52
  Time Step Frequencies       :
      1.000 -  0.871 sec      :   100.00 %
      0.871 -  0.758 sec      :     0.00 %
      0.758 -  0.660 sec      :     0.00 %
      0.660 -  0.574 sec      :     0.00 %
      0.574 -  0.500 sec      :     0.00 %
  
  
  ***************************
  Subcatchment Runoff Summary
  ***************************
  
  ------------------------------------------------------------------------------------------------------------------------------
                            Total      Total      Total      Total     Imperv       Perv      Total       Total     Peak  Runoff
                           Precip      Runon       Evap      Infil     Runoff     Runoff     Runoff      Runoff   Runoff   Coeff
  Subcatchment                 mm         mm         mm         mm         mm         mm         mm    10^6 ltr      LPS
  ------------------------------------------------------------------------------------------------------------------------------
  A2                        48.18       0.00       0.00      12.73      19.61      15.06      34.67       33.60 11933.17   0.720
  A1                        48.18       0.00       0.00      13.87      14.08      19.72      33.80       11.42  4277.90   0.701
  A3                        48.18       0.00       0.00      13.75      15.48      18.29      33.78       17.12  6140.49   0.701
  A4                        48.18       0.00       0.00      14.58      12.12      20.96      33.08        9.92  3578.10   0.687
  A5                        48.18       0.00       0.00      17.57       4.82      25.17      29.99        7.65  2208.10   0.622
  C1                        48.18       0.00       0.00      17.15       4.82      25.75      30.57        5.47  1827.65   0.634
  B2                        48.18       0.00       0.00      11.79      18.61      17.42      36.03        9.84  4267.13   0.748
  B3                        48.18       0.00       0.00      11.03      22.75      14.25      36.99        5.70  3044.04   0.768
  E1                        48.18       0.00       0.00      38.39       0.00       8.91       8.91        3.11   603.40   0.185
  E2                        48.18       0.00       0.00      35.64       0.00      12.07      12.07        1.46   387.93   0.250
  D6                        48.18       0.00       0.00       5.61      23.01      19.39      42.40        5.55  2965.00   0.880
  D1                        48.18       0.00       0.00       6.12      24.12      17.86      41.98        2.80  1724.06   0.871
  D2                        48.18       0.00       0.00       7.31      24.19      16.34      40.53       11.39  5189.48   0.841
  D3                        48.18       0.00       0.00       7.24      23.92      16.78      40.70        8.06  3948.18   0.845
  D4                        48.18       0.00       0.00       6.96      22.61      18.18      40.80       12.69  5507.23   0.847
  D5                        48.18       0.00       0.00      10.52      21.87      15.44      37.31        9.81  4364.30   0.774
  I2                        48.18       0.00       0.00      11.67      17.45      18.53      35.98        5.15  2012.06   0.747
  I1                        48.18       0.00       0.00      12.60      17.40      15.40      32.80       19.42  5773.11   0.681
  L                         48.18       0.00       0.00      12.39      14.73      16.43      31.16       20.47  5384.15   0.647
  J                         48.18       0.00       0.00      10.45      16.19      21.32      37.51        5.74  2755.22   0.778
  G1                        48.18       0.00       0.00       9.92      22.04      15.75      37.80       16.82  7077.57   0.784
  G2                        48.18       0.00       0.00       8.89      21.63      17.36      38.99       10.53  4844.75   0.809
  H                         48.18       0.00       0.00       9.36      22.24      15.95      38.19       23.94  9319.96   0.793
  F                         48.18       0.00       0.00      10.26      21.54      15.86      37.40       14.10  5737.50   0.776
  E3                        48.18       0.00       0.00       7.26      22.30      18.02      40.32       16.21  6511.73   0.837
  G3                        48.18       0.00       0.00       8.17      22.20      17.77      39.97        1.08   749.23   0.830
  C2D                       48.18       0.00       0.00       9.10      30.93       8.07      39.00        5.44  3316.60   0.810
  C2C                       48.18       0.00       0.00       9.58      30.90       7.49      38.39       16.60  8219.28   0.797
  C2A                       48.18       0.00       0.00       9.65      30.90       7.39      38.29       18.70  9101.89   0.795
  C2B                       48.18       0.00       0.00       9.43      30.91       7.67      38.58       12.92  6657.93   0.801
  B1A                       48.18       0.00       0.00      12.66      28.22       6.92      35.15       22.96 10436.09   0.730
  B1B                       48.18       0.00       0.00      11.93      28.26       7.81      36.07       10.10  5263.01   0.749
  
  
  ******************
  Node Depth Summary
  ******************
  
  ---------------------------------------------------------------------------------
                                 Average  Maximum  Maximum  Time of Max    Reported
                                   Depth    Depth      HGL   Occurrence   Max Depth
  Node                 Type       Meters   Meters   Meters  days hr:min      Meters
  ---------------------------------------------------------------------------------
  J1                   JUNCTION     0.78     0.80     0.80     0  00:15        0.80
  J2                   JUNCTION     0.00     0.00    45.63     0  00:00        0.00
  J3                   JUNCTION     0.45     1.80    38.24     0  00:59        1.80
  J4                   JUNCTION     0.75     1.80    54.65     0  00:38        1.80
  J5                   JUNCTION     0.71     1.80    49.18     0  00:41        1.80
  J6                   JUNCTION     0.69     1.80    43.71     0  00:41        1.80
  J7                   JUNCTION     0.40     0.86    30.45     0  01:38        0.86
  J8                   JUNCTION     0.08     0.20    23.66     0  01:29        0.20
  J9                   JUNCTION     0.17     0.60    38.28     0  01:06        0.59
  J10                  JUNCTION     0.35     2.00    34.42     0  01:01        2.00
  J11                  JUNCTION     0.31     2.00    29.16     0  01:01        1.37
  J12                  JUNCTION     0.84     2.79    18.44     0  01:07        2.79
  J13                  JUNCTION     0.48     2.00    38.98     0  00:53        2.00
  J14                  JUNCTION     0.40     2.50    32.00     0  01:01        2.50
  J15                  JUNCTION     0.21     0.86    22.18     0  01:06        0.86
  J16                  JUNCTION     0.11     0.40    57.08     0  01:06        0.40
  J17                  JUNCTION     0.28     2.50    39.71     0  01:02        2.50
  J18                  JUNCTION     0.20     1.24    37.05     0  01:08        1.24
  J19                  JUNCTION     0.39     2.50    29.94     0  01:02        2.50
  J20                  JUNCTION     0.42     1.40    34.35     0  00:27        1.40
  J21                  JUNCTION     0.35     3.00    27.44     0  01:01        3.00
  J22                  JUNCTION     0.00     0.00    27.64     0  00:00        0.00
  J23                  JUNCTION     0.29     1.37    22.82     0  01:02        1.36
  J24                  JUNCTION     0.35     1.62    21.77     0  01:03        1.62
  J25                  JUNCTION     0.33     1.48    19.46     0  01:05        1.48
  J26                  JUNCTION     0.29     1.25    18.07     0  01:15        1.25
  J27                  JUNCTION     0.52     1.80    27.64     0  00:39        1.80
  J28                  JUNCTION     0.16     0.38    24.63     0  00:59        0.38
  J29                  JUNCTION     0.61     2.39    17.05     0  01:06        2.39
  J30                  JUNCTION     0.24     1.80    30.04     0  00:58        1.80
  J31                  JUNCTION     0.17     0.65    25.66     0  01:02        0.65
  J32                  JUNCTION     0.17     0.73    20.02     0  01:10        0.73
  J33                  JUNCTION     0.10     0.64    39.53     0  01:03        0.63
  J34                  JUNCTION     0.10     0.59    31.20     0  01:06        0.59
  J35                  JUNCTION     0.20     0.97    22.38     0  01:07        0.97
  J36                  JUNCTION     0.07     0.52    21.73     0  01:09        0.52
  J37                  JUNCTION     0.40     2.50    17.59     0  01:02        2.50
  J38                  JUNCTION     0.24     1.27    13.39     0  01:07        1.27
  J39                  JUNCTION     0.39     2.15    13.17     0  01:06        2.14
  J40                  JUNCTION     0.95     1.00     1.00     0  00:28        1.00
  J41                  JUNCTION     0.94     1.00     1.00     0  00:28        1.00
  J42                  JUNCTION     0.40     2.40    12.82     0  01:05        2.40
  J43                  JUNCTION     0.39     2.20    12.14     0  01:02        2.20
  J44                  JUNCTION     0.51     2.20    11.36     0  01:01        2.18
  J45                  JUNCTION     0.15     0.58     9.22     0  01:22        0.58
  J46                  JUNCTION     0.20     0.76     9.05     0  01:23        0.76
  J47                  JUNCTION     0.21     0.79     8.47     0  01:07        0.79
  J48                  JUNCTION     0.39     1.56     8.02     0  01:11        1.56
  J50                  JUNCTION     0.55     2.00    18.49     0  00:51        2.00
  J51                  JUNCTION     0.57     2.00    17.23     0  00:49        2.00
  J52                  JUNCTION     0.86     1.90    15.24     0  00:28        1.90
  J53                  JUNCTION     0.18     0.33    12.73     0  00:47        0.33
  J54                  JUNCTION     0.50     1.83    11.43     0  01:09        1.83
  J55                  JUNCTION     0.28     2.00    29.02     0  01:01        2.00
  J56                  JUNCTION     0.63     2.20    14.22     0  00:55        2.20
  J57                  JUNCTION     0.20     1.80    27.59     0  01:00        1.80
  J58                  JUNCTION     0.41     2.50    13.76     0  01:06        1.75
  J59                  JUNCTION     0.55     2.50    10.79     0  01:00        2.12
  J60                  JUNCTION     0.50     1.79     9.69     0  01:10        1.79
  J49                  JUNCTION     0.50     1.91     6.91     0  01:10        1.91
  J63                  JUNCTION     0.49     1.88    14.21     0  01:07        1.88
  Out2                 OUTFALL      0.50     2.00     6.50     0  01:20        2.00
  
  
  *******************
  Node Inflow Summary
  *******************
  
  -------------------------------------------------------------------------------------------------
                                  Maximum  Maximum                  Lateral       Total        Flow
                                  Lateral    Total  Time of Max      Inflow      Inflow     Balance
                                   Inflow   Inflow   Occurrence      Volume      Volume       Error
  Node                 Type           LPS      LPS  days hr:min    10^6 ltr    10^6 ltr     Percent
  -------------------------------------------------------------------------------------------------
  J1                   JUNCTION   4277.90  4277.90     0  01:03        11.4        11.4       0.535
  J2                   JUNCTION      0.00     0.00     0  00:00           0           0       0.000 ltr
  J3                   JUNCTION   6140.49  7325.34     0  01:06        17.1        30.3       0.034
  J4                   JUNCTION  11933.17 11933.17     0  01:06        33.6        33.6       0.014
  J5                   JUNCTION      0.00  1353.64     0  00:40           0        13.2       0.042
  J6                   JUNCTION      0.00  1274.75     0  00:40           0        13.2       0.056
  J7                   JUNCTION      0.00  3501.82     0  00:58           0        26.6       0.146
  J8                   JUNCTION    603.40  7622.60     0  01:29        3.11        45.5       0.002
  J9                   JUNCTION   2208.10  2208.10     0  01:06        7.65        7.65       0.010
  J10                  JUNCTION   3578.10  5761.33     0  01:06        9.92        17.6       0.007
  J11                  JUNCTION      0.00  3677.70     0  01:01           0        15.8       0.003
  J12                  JUNCTION    387.93 18082.75     0  01:06        1.46        85.2       0.133
  J13                  JUNCTION   9530.13  9530.13     0  01:03        19.9        19.9      -0.042
  J14                  JUNCTION  10436.09 10436.09     0  01:06          23          23       0.019
  J15                  JUNCTION   3044.04 10707.33     0  01:03         5.7        38.3       0.053
  J16                  JUNCTION   1827.65  1827.65     0  01:06        5.47        5.47       0.078
  J17                  JUNCTION   9101.89 10878.31     0  01:06        18.7        24.2      -0.048
  J18                  JUNCTION      0.00  9533.25     0  01:08           0        23.9       0.028
  J19                  JUNCTION      0.00  9738.72     0  01:08           0        25.6       0.029
  J20                  JUNCTION   3316.60  3316.60     0  01:03        5.44        5.44      -0.004
  J21                  JUNCTION   8219.28 14151.45     0  01:06        16.6        39.6      -0.011
  J22                  JUNCTION      0.00     0.00     0  00:00           0           0       0.000 ltr
  J23                  JUNCTION      0.00 10465.36     0  01:01           0        37.8       0.014
  J24                  JUNCTION      0.00 10500.06     0  01:02           0        37.8       0.027
  J25                  JUNCTION      0.00 10432.90     0  01:04           0        37.8       0.029
  J26                  JUNCTION      0.00 11348.59     0  01:05           0        44.1       0.019
  J27                  JUNCTION   6657.93  6657.93     0  01:03        12.9        12.9      -0.007
  J28                  JUNCTION      0.00   939.81     0  00:59           0        6.26      -0.006
  J29                  JUNCTION   6511.73 35445.39     0  01:06        16.2         145       0.037
  J30                  JUNCTION   2965.00  2965.00     0  01:03        5.55        5.55      -0.023
  J31                  JUNCTION      0.00  1305.07     0  01:02           0         4.6      -0.044
  J32                  JUNCTION      0.00  2755.53     0  01:09           0        7.39       0.124
  J33                  JUNCTION   1724.06  1724.06     0  01:03         2.8         2.8      -0.048
  J34                  JUNCTION      0.00  1674.89     0  01:03           0         2.8      -0.019
  J35                  JUNCTION      0.00  1567.05     0  01:06           0         2.8       0.173
  J36                  JUNCTION      0.00  1503.54     0  01:07           0        2.79       0.031
  J37                  JUNCTION   5507.23  7733.60     0  01:06        12.7        20.1       0.024
  J38                  JUNCTION      0.00  5859.55     0  01:08           0        19.1       0.001
  J39                  JUNCTION      0.00  5875.08     0  01:08           0        19.1       0.026
  J40                  JUNCTION   5189.48  5189.48     0  01:06        11.4        11.4       1.314
  J41                  JUNCTION   3948.18  5887.75     0  01:06        8.06          18       2.501
  J42                  JUNCTION      0.00  5896.84     0  01:03           0        19.2       0.088
  J43                  JUNCTION   4364.30  6054.01     0  01:06        9.81        17.7      -0.015
  J44                  JUNCTION      0.00  3987.42     0  01:19           0        16.6       0.077
  J45                  JUNCTION      0.00  3987.32     0  01:22           0        16.6       0.022
  J46                  JUNCTION      0.00  3987.01     0  01:22           0        16.6       0.076
  J47                  JUNCTION   5773.11  9534.82     0  01:06        19.4          36       0.078
  J48                  JUNCTION   2012.06 11366.78     0  01:06        5.15        41.1       0.236
  J50                  JUNCTION   5737.50  5737.50     0  01:06        14.1        14.1       0.000
  J51                  JUNCTION      0.00  1393.98     0  00:57           0        9.11       0.019
  J52                  JUNCTION   9319.96 10586.37     0  01:06        23.9        32.6       0.025
  J53                  JUNCTION      0.00  1212.32     0  00:46           0        12.4       0.036
  J54                  JUNCTION      0.00 36761.47     0  01:08           0         158       0.103
  J55                  JUNCTION   7077.57  7077.57     0  01:06        16.8        16.8       0.015
  J56                  JUNCTION   3504.46 10147.22     0  01:03        6.82        31.4       0.098
  J57                  JUNCTION   4844.75  4844.75     0  01:03        10.5        10.5      -0.032
  J58                  JUNCTION      0.00  4533.87     0  01:03           0        22.6       0.048
  J59                  JUNCTION      0.00  4341.73     0  01:00           0        22.6       0.235
  J60                  JUNCTION      0.00 40351.32     0  01:09           0         180       0.107
  J49                  JUNCTION   5384.15 55670.32     0  01:10        20.5         241       0.103
  J63                  JUNCTION      0.00 35406.71     0  01:06           0         145       0.080
  Out2                 OUTFALL       0.00 57691.87     0  01:11           0         241       0.000
  
  
  **********************
  Node Surcharge Summary
  **********************
  
  Surcharging occurs when water rises above the top of the highest conduit.
  ---------------------------------------------------------------------
                                               Max. Height   Min. Depth
                                   Hours       Above Crown    Below Rim
  Node                 Type      Surcharged         Meters       Meters
  ---------------------------------------------------------------------
  J1                   JUNCTION        5.75          0.000        0.000
  J3                   JUNCTION        0.81          1.000        0.000
  J4                   JUNCTION        1.93          1.000        0.000
  J5                   JUNCTION        1.93          1.000        0.000
  J6                   JUNCTION        2.01          1.000        0.000
  J10                  JUNCTION        0.47          1.000        0.000
  J11                  JUNCTION        0.45          1.000        0.000
  J13                  JUNCTION        0.92          1.000        0.000
  J14                  JUNCTION        0.31          1.000        0.000
  J17                  JUNCTION        0.18          1.000        0.000
  J19                  JUNCTION        0.32          1.000        0.000
  J20                  JUNCTION        1.63          1.000        0.000
  J21                  JUNCTION        0.38          1.500        0.000
  J27                  JUNCTION        1.41          1.000        0.000
  J30                  JUNCTION        0.39          1.000        0.000
  J37                  JUNCTION        0.29          1.000        0.000
  J40                  JUNCTION        5.53          0.000        0.000
  J41                  JUNCTION        5.52          0.000        0.000
  J42                  JUNCTION        0.35          0.000        0.000
  J43                  JUNCTION        0.62          1.000        0.000
  J44                  JUNCTION        0.77          1.000        0.000
  J50                  JUNCTION        1.21          1.000        0.000
  J51                  JUNCTION        1.31          1.000        0.000
  J52                  JUNCTION        2.14          1.000        0.000
  J55                  JUNCTION        0.29          0.800        0.000
  J56                  JUNCTION        0.88          0.700        0.000
  J57                  JUNCTION        0.29          1.100        0.000
  J58                  JUNCTION        0.60          1.000        0.000
  J59                  JUNCTION        0.86          1.000        0.000
  
  
  *********************
  Node Flooding Summary
  *********************
  
  Flooding refers to all water that overflows a node, whether it ponds or not.
  --------------------------------------------------------------------------
                                                             Total   Maximum
                                 Maximum   Time of Max       Flood    Ponded
                        Hours       Rate    Occurrence      Volume     Depth
  Node                 Flooded       LPS   days hr:min    10^6 ltr    Meters
  --------------------------------------------------------------------------
  J1                      5.75   4277.41      0  01:03      11.362     0.000
  J3                      0.66   3845.03      0  01:06       3.642     0.000
  J4                      1.88  10745.80      0  01:06      20.422     0.000
  J5                      0.02    135.53      0  00:41       0.001     0.000
  J6                      0.02     90.10      0  00:59       0.001     0.000
  J10                     0.43   2260.37      0  01:06       1.776     0.000
  J11                     0.01    153.10      0  01:01       0.000     0.000
  J13                     0.84   7318.69      0  01:03       7.461     0.000
  J14                     0.28   4959.91      0  01:06       2.809     0.000
  J17                     0.10   1671.57      0  01:02       0.316     0.000
  J19                     0.28   3806.55      0  01:08       2.606     0.000
  J20                     1.61   3109.46      0  01:03       3.678     0.000
  J21                     0.23   3747.16      0  01:06       1.782     0.000
  J27                     1.18   5717.87      0  01:03       6.657     0.000
  J30                     0.34   1659.44      0  01:03       0.956     0.000
  J37                     0.22   1962.44      0  01:06       0.934     0.000
  J40                     5.53   5175.54      0  01:06      10.940     0.000
  J41                     5.52   5887.36      0  01:06      17.518     0.000
  J42                     0.35   1808.28      0  01:08       1.698     0.000
  J43                     0.32   2205.80      0  01:02       1.019     0.000
  J44                     0.01    569.10      0  01:01       0.001     0.000
  J50                     0.97   4342.39      0  01:06       4.984     0.000
  J51                     1.06    206.53      0  00:49       0.463     0.000
  J52                     1.93   9371.87      0  01:06      20.135     0.000
  J55                     0.26   3113.09      0  01:06       1.627     0.000
  J56                     0.75   6208.14      0  01:06       8.782     0.000
  J57                     0.26   2164.84      0  01:03       1.123     0.000
  J58                     0.01    184.66      0  01:06       0.000     0.000
  J59                     0.01    495.39      0  01:05       0.002     0.000
  
  
  ***********************
  Outfall Loading Summary
  ***********************
  
  -----------------------------------------------------------
                         Flow       Avg       Max       Total
                         Freq      Flow      Flow      Volume
  Outfall Node           Pcnt       LPS       LPS    10^6 ltr
  -----------------------------------------------------------
  Out2                  98.25  11359.97  57691.87     241.081
  -----------------------------------------------------------
  System                98.25  11359.97  57691.87     241.081
  
  
  ********************
  Link Flow Summary
  ********************
  
  -----------------------------------------------------------------------------
                                 Maximum  Time of Max   Maximum    Max/    Max/
                                  |Flow|   Occurrence   |Veloc|    Full    Full
  Link                 Type          LPS  days hr:min     m/sec    Flow   Depth
  -----------------------------------------------------------------------------
  T4-1                 CONDUIT   2196.86     0  01:06      3.27    0.66    0.80
  T4-2                 CONDUIT   3677.70     0  01:01      4.73    1.11    1.00
  T4-3                 CONDUIT   3546.00     0  01:01      8.00    0.92    0.60
  T1-1                 CONDUIT      0.00     0  00:00      0.00    0.00    0.50
  T1-2                 CONDUIT      0.00     0  00:00      0.00    0.00    0.50
  T2-1                 CONDUIT   1353.64     0  00:40      2.74    1.14    1.00
  T2-2                 CONDUIT   1274.75     0  00:40      2.65    1.08    1.00
  T2-3                 CONDUIT   1258.98     0  00:58      3.13    1.06    1.00
  T3-1                 CONDUIT   3501.82     0  00:58      2.36    1.07    1.00
  T3-2                 CONDUIT   3481.71     0  01:29      4.27    0.83    0.53
  T5                   CONDUIT   7608.92     0  01:29      2.58    0.02    0.50
  T6                   CONDUIT   2226.34     0  01:06      3.47    1.06    0.93
  T7                   CONDUIT   5473.82     0  01:06      4.10    1.01    0.79
  T11                  CONDUIT    257.72     0  00:27      2.56    1.12    1.00
  T10-1                CONDUIT   1797.89     0  01:06      1.88    0.16    0.63
  T10-2                CONDUIT   9533.25     0  01:08      3.56    1.34    0.91
  T10-3                CONDUIT   9532.48     0  01:08      4.64    0.93    0.91
  T12                  CONDUIT   6350.95     0  01:18      4.26    0.98    1.00
  T13                  CONDUIT      0.00     0  00:00      0.00    0.00    0.50
  T14-1                CONDUIT  10465.36     0  01:01      4.76    1.25    1.00
  T14-2                CONDUIT  10500.06     0  01:02      3.61    0.73    0.74
  T14-3                CONDUIT  10432.90     0  01:04      3.39    1.07    0.86
  T14-4                CONDUIT  10408.78     0  01:05      3.83    0.65    0.55
  T15-1                CONDUIT    939.81     0  00:59      2.37    1.22    0.74
  T15-2                CONDUIT    939.81     0  00:59      3.41    0.38    0.71
  T16                  CONDUIT  11343.22     0  01:15      3.25    0.50    0.73
  T25-1                CONDUIT   1305.07     0  01:02      2.74    1.16    0.91
  T25-2                CONDUIT   1321.05     0  01:05      2.62    0.74    0.68
  T26-1                CONDUIT   1674.89     0  01:03      3.44    0.71    0.60
  T26-2                CONDUIT   1567.05     0  01:06      2.53    0.66    0.78
  T27                  CONDUIT   1503.54     0  01:07      1.21    1.53    0.74
  T28                  CONDUIT   1455.55     0  01:09      1.95    0.53    0.62
  T29-1                CONDUIT   2715.60     0  01:10      1.92    0.48    0.74
  T29-2                CONDUIT   5859.55     0  01:08      3.48    1.22    0.92
  T29-3                CONDUIT   5875.08     0  01:08      2.66    0.56    0.78
  T29-4                CONDUIT   5893.87     0  01:08      2.90    0.85    0.95
  T30-1                CONDUIT    225.52     0  00:25      0.43   16.11    1.00
  T30-2                CONDUIT   2011.95     0  01:02      2.59    1.07    1.00
  T31-1                CONDUIT   2290.04     0  01:30      1.01    1.30    1.00
  T31-2                CONDUIT   3987.42     0  01:19      1.76    1.02    1.00
  T31-3                CONDUIT   3987.32     0  01:22      2.25    1.76    0.74
  T32-1                CONDUIT   3987.01     0  01:22      2.09    0.27    0.40
  T32-2                CONDUIT   3984.36     0  01:23      1.90    0.42    0.45
  T32-3                CONDUIT   9481.33     0  01:07      2.84    0.45    0.69
  T32-4                CONDUIT  10863.23     0  01:09      2.25    1.15    0.96
  T19-3                CONDUIT   1393.98     0  00:57      1.78    1.00    1.00
  T19-4                CONDUIT   1266.41     0  00:56      1.99    1.03    1.00
  T19-5                CONDUIT   1212.32     0  00:46      2.62    1.40    0.68
  T19-6                CONDUIT   1212.32     0  00:47      2.69    0.19    0.63
  T21                  CONDUIT   4336.59     0  01:19      3.72    1.09    1.00
  T22                  CONDUIT   2771.83     0  01:00      3.69    1.02    1.00
  T23-1                CONDUIT   4533.87     0  01:03      2.85    1.56    1.00
  T23-2                CONDUIT   4341.73     0  01:00      2.35    1.10    1.00
  T23-3                CONDUIT   4232.15     0  01:01      1.56    1.57    1.00
  T33                  CONDUIT  57691.87     0  01:11      6.17    1.16    0.97
  T8                   CONDUIT  10530.49     0  01:06      1.78    0.45    0.79
  T9                   CONDUIT  17895.71     0  01:08      2.32    0.79    0.74
  T17                  CONDUIT  35406.71     0  01:06      5.53    0.90    0.79
  T18                  CONDUIT  35549.14     0  01:08      4.28    1.06    0.84
  T20                  CONDUIT  36672.72     0  01:09      4.52    1.03    0.82
  T24                  CONDUIT  40367.57     0  01:11      4.46    1.14    0.93
  
  
  ***************************
  Flow Classification Summary
  ***************************
  
  -------------------------------------------------------------------------------------
                      Adjusted    ---------- Fraction of Time in Flow Class ---------- 
                       /Actual         Up    Down  Sub   Sup   Up    Down  Norm  Inlet 
  Conduit               Length    Dry  Dry   Dry   Crit  Crit  Crit  Crit  Ltd   Ctrl  
  -------------------------------------------------------------------------------------
  T4-1                    1.00   0.01  0.00  0.00  0.03  0.96  0.00  0.00  0.98  0.00
  T4-2                    1.00   0.01  0.00  0.00  0.08  0.91  0.00  0.00  0.88  0.00
  T4-3                    1.00   0.01  0.00  0.00  0.00  0.99  0.00  0.00  0.00  0.00
  T1-1                    1.00   0.01  0.99  0.00  0.00  0.00  0.00  0.00  0.00  0.00
  T1-2                    1.00   0.01  0.99  0.00  0.00  0.00  0.00  0.00  0.00  0.00
  T2-1                    1.00   0.01  0.00  0.00  0.34  0.65  0.00  0.00  0.57  0.00
  T2-2                    1.00   0.01  0.00  0.00  0.36  0.63  0.00  0.00  0.56  0.00
  T2-3                    1.00   0.01  0.00  0.00  0.23  0.76  0.00  0.00  0.03  0.00
  T3-1                    1.00   0.01  0.00  0.00  0.90  0.09  0.00  0.00  0.79  0.00
  T3-2                    1.00   0.01  0.00  0.00  0.02  0.97  0.00  0.00  0.01  0.00
  T5                      1.00   0.01  0.00  0.00  0.95  0.04  0.00  0.00  0.97  0.00
  T6                      1.00   0.01  0.00  0.00  0.09  0.90  0.00  0.00  0.00  0.00
  T7                      1.00   0.01  0.00  0.00  0.00  0.99  0.00  0.00  0.00  0.00
  T11                     1.00   0.01  0.00  0.00  0.93  0.06  0.00  0.00  0.67  0.00
  T10-1                   1.00   0.01  0.00  0.00  0.23  0.76  0.00  0.00  0.70  0.00
  T10-2                   1.00   0.01  0.00  0.00  0.59  0.41  0.00  0.00  0.00  0.00
  T10-3                   1.00   0.01  0.01  0.00  0.69  0.29  0.00  0.00  0.96  0.00
  T12                     1.00   0.01  0.00  0.00  0.09  0.91  0.00  0.00  0.03  0.00
  T13                     1.00   0.01  0.99  0.00  0.00  0.00  0.00  0.00  0.00  0.00
  T14-1                   1.00   0.01  0.00  0.00  0.07  0.92  0.00  0.00  0.88  0.00
  T14-2                   1.00   0.01  0.00  0.00  0.60  0.38  0.00  0.00  0.75  0.00
  T14-3                   1.00   0.02  0.00  0.00  0.90  0.09  0.00  0.00  0.63  0.00
  T14-4                   1.00   0.01  0.01  0.00  0.45  0.52  0.00  0.00  0.02  0.00
  T15-1                   1.00   0.01  0.00  0.00  0.04  0.95  0.00  0.00  0.00  0.00
  T15-2                   1.00   0.01  0.00  0.00  0.13  0.86  0.00  0.00  0.77  0.00
  T16                     1.00   0.01  0.01  0.00  0.94  0.05  0.00  0.00  0.98  0.00
  T25-1                   1.00   0.01  0.00  0.00  0.19  0.80  0.00  0.00  0.71  0.00
  T25-2                   1.00   0.01  0.00  0.00  0.67  0.32  0.00  0.00  0.82  0.00
  T26-1                   1.00   0.01  0.00  0.00  0.25  0.74  0.00  0.00  0.82  0.00
  T26-2                   1.00   0.01  0.00  0.00  0.92  0.07  0.00  0.00  0.94  0.00
  T27                     1.00   0.01  0.00  0.00  0.99  0.00  0.00  0.00  0.00  0.00
  T28                     1.00   0.01  0.02  0.00  0.97  0.00  0.00  0.00  0.97  0.00
  T29-1                   1.00   0.01  0.00  0.00  0.99  0.00  0.00  0.00  0.99  0.00
  T29-2                   1.00   0.01  0.00  0.00  0.07  0.93  0.00  0.00  0.00  0.00
  T29-3                   1.00   0.01  0.00  0.00  0.97  0.03  0.00  0.00  0.88  0.00
  T29-4                   1.00   0.02  0.00  0.00  0.96  0.03  0.00  0.00  0.60  0.00
  T30-1                   1.00   0.01  0.00  0.00  0.99  0.00  0.00  0.00  0.00  0.00
  T30-2                   1.00   0.01  0.02  0.00  0.97  0.00  0.00  0.00  0.86  0.00
  T31-1                   1.00   0.01  0.02  0.00  0.97  0.00  0.00  0.00  0.14  0.00
  T31-2                   1.00   0.01  0.00  0.00  0.97  0.02  0.00  0.00  0.82  0.00
  T31-3                   1.00   0.01  0.00  0.00  0.99  0.00  0.00  0.00  0.00  0.00
  T32-1                   1.00   0.01  0.00  0.00  0.96  0.03  0.00  0.00  0.76  0.00
  T32-2                   1.00   0.01  0.03  0.00  0.96  0.00  0.00  0.00  0.68  0.00
  T32-3                   1.00   0.01  0.00  0.00  0.95  0.04  0.00  0.00  0.93  0.00
  T32-4                   1.00   0.01  0.00  0.00  0.99  0.00  0.00  0.00  0.87  0.00
  T19-3                   1.00   0.01  0.00  0.00  0.94  0.06  0.00  0.00  0.06  0.00
  T19-4                   1.00   0.01  0.00  0.00  0.99  0.00  0.00  0.00  0.70  0.00
  T19-5                   1.00   0.01  0.00  0.00  0.02  0.97  0.00  0.00  0.00  0.00
  T19-6                   1.00   0.01  0.00  0.00  0.91  0.08  0.00  0.00  0.93  0.00
  T21                     1.00   0.01  0.00  0.00  0.98  0.01  0.00  0.00  0.94  0.00
  T22                     1.00   0.01  0.00  0.00  0.90  0.09  0.00  0.00  0.92  0.00
  T23-1                   1.00   0.01  0.00  0.00  0.28  0.71  0.00  0.00  0.00  0.00
  T23-2                   1.00   0.01  0.00  0.00  0.95  0.04  0.00  0.00  0.77  0.00
  T23-3                   1.00   0.03  0.00  0.00  0.97  0.00  0.00  0.00  0.59  0.00
  T33                     1.00   0.01  0.00  0.00  0.04  0.95  0.00  0.00  0.76  0.00
  T8                      1.00   0.01  0.00  0.00  0.99  0.00  0.00  0.00  0.96  0.00
  T9                      1.00   0.01  0.01  0.00  0.98  0.00  0.00  0.00  0.01  0.00
  T17                     1.00   0.01  0.00  0.00  0.01  0.98  0.00  0.00  0.00  0.00
  T18                     1.00   0.02  0.00  0.00  0.71  0.27  0.00  0.00  0.77  0.00
  T20                     1.00   0.02  0.00  0.00  0.41  0.57  0.00  0.00  0.75  0.00
  T24                     1.00   0.01  0.03  0.00  0.45  0.51  0.00  0.00  0.60  0.00
  
  
  *************************
  Conduit Surcharge Summary
  *************************
  
  ----------------------------------------------------------------------------
                                                           Hours        Hours 
                         --------- Hours Full --------   Above Full   Capacity
  Conduit                Both Ends  Upstream  Dnstream   Normal Flow   Limited
  ----------------------------------------------------------------------------
  T4-1                        0.01      0.01      0.47      0.01         0.01
  T4-2                        0.45      0.47      0.45      0.50         0.45
  T4-3                        0.01      0.45      0.01      0.01         0.01
  T2-1                        1.88      1.93      1.93      1.27         1.17
  T2-2                        1.93      1.93      2.01      1.24         1.17
  T2-3                        0.81      2.01      0.81      1.17         0.14
  T3-1                        0.81      0.81      0.92      0.89         0.80
  T6                          0.01      0.92      0.01      0.43         0.01
  T7                          0.01      0.31      0.01      0.14         0.01
  T11                         1.61      1.63      1.83      1.35         1.26
  T10-1                       0.01      0.01      0.18      0.01         0.01
  T10-2                       0.01      0.18      0.01      0.23         0.01
  T10-3                       0.01      0.01      0.32      0.01         0.01
  T12                         0.32      0.32      0.38      0.01         0.01
  T14-1                       0.43      0.43      0.48      0.46         0.42
  T14-3                       0.01      0.01      0.01      0.30         0.01
  T15-1                       0.01      1.41      0.01      1.42         0.01
  T15-2                       0.01      0.01      0.58      0.01         0.01
  T25-1                       0.01      0.39      0.01      0.42         0.01
  T27                         0.01      0.01      0.01      0.20         0.01
  T29-1                       0.01      0.01      0.29      0.01         0.01
  T29-2                       0.01      0.29      0.01      0.36         0.01
  T29-4                       0.01      0.01      0.35      0.01         0.01
  T30-1                       5.52      5.53      5.52      0.87         0.01
  T30-2                       0.64      0.64      5.52      0.69         0.64
  T31-1                       0.60      0.60      0.62      0.57         0.57
  T31-2                       0.62      0.62      0.77      0.35         0.36
  T31-3                       0.01      0.77      0.01      0.85         0.01
  T32-4                       0.01      0.01      0.27      0.21         0.01
  T19-3                       1.21      1.21      1.31      0.01         0.01
  T19-4                       1.35      1.35      2.14      1.07         1.08
  T19-5                       0.01      2.14      0.01      2.26         0.01
  T19-6                       0.01      0.01      0.67      0.01         0.01
  T21                         0.29      0.29      1.09      0.03         0.01
  T22                         0.29      0.29      1.68      0.01         0.01
  T23-1                       0.60      0.88      0.60      1.09         0.60
  T23-2                       0.79      0.79      1.17      0.12         0.01
  T23-3                       0.46      0.86      0.46      1.18         0.46
  T33                         0.01      0.01      0.01      0.25         0.01
  T8                          0.01      0.01      1.30      0.01         0.01
  T18                         0.01      0.01      0.01      0.15         0.01
  T20                         0.01      0.01      0.01      0.09         0.01
  T24                         0.01      0.01      0.01      0.33         0.01
  

  Analysis begun on:  Wed Dec  6 00:32:46 2023
  Analysis ended on:  Wed Dec  6 00:32:51 2023
  Total elapsed time: 00:00:05